kpg193_v2_0_2034/network/m/KPG193_ver2_0_2034.m
function mpc = KPG193_ver2_0_2034
% Generated from KPG193_ver1_6 ACOPF hourly result.
% Bus voltage angle Va is in degrees, matching MATPOWER case format.
mpc.version = '2';

%-----  Power Flow Data  -----%%
% system MVA base
mpc.baseMVA = 100;

% bus data
%	bus_i	type	Pd	Qd	Gs	Bs	area	Vm	Va	baseKV	zone	Vmax	Vmin
mpc.bus = [
	1	1	71.7768340916	7.17768340916	0	0	1	1.03437764913	-13.5715942868	154	1	1.1	0.9	;
	2	1	86.7515518881	8.67515518881	0	0	1	1.0375979148	-15.3286123507	345	1	1.05	0.95	;
	3	1	397.876334294	39.7876334294	0	0	1	1.0375354704	-15.262237187	345	1	1.05	0.95	;
	4	1	92.2821059596	9.22821059596	0	0	1	1.03930121043	-15.7829864557	345	1	1.05	0.95	;
	5	1	81.3394340594	10.4206578519	0	0	1	1.04167748519	-6.50618191086	154	1	1.1	0.9	;
	6	1	88.6632377154	8.86632377154	0	0	1	1.03828993717	-16.7005304286	154	1	1.1	0.9	;
	7	1	598.243170189	59.8255759892	0	0	1	1.04148330673	-16.106654455	345	1	1.05	0.95	;
	8	1	1365.61861145	136.561861145	0	0	1	1.03901899614	-16.3986220382	345	1	1.05	0.95	;
	9	1	345.732677437	34.5732677437	0	0	1	1.04064611564	-16.1362625616	154	1	1.1	0.9	;
	10	2	759.561050321	75.9561050321	0	0	1	1.04088539867	-16.2719339019	154	1	1.1	0.9	;
	11	1	629.130289492	62.9130289492	0	0	1	1.03838673631	-16.7271771049	345	1	1.05	0.95	;
	12	1	345.211336669	34.5211336669	0	0	1	1.04057764249	-16.151405354	154	1	1.1	0.9	;
	13	1	372.077305844	37.2077305844	0	0	1	1.04082110588	-16.1294949522	154	1	1.1	0.9	;
	14	1	399.025400869	39.9025400869	0	0	1	1.04084286029	-16.176745708	345	1	1.05	0.95	;
	15	1	118.039492046	11.8039492046	0	0	1	1.04135459275	-16.0450183644	154	1	1.1	0.9	;
	16	1	508.5187827	50.85187827	0	0	1	1.0416880585	-16.0019697704	345	1	1.05	0.95	;
	17	1	548.339930893	54.8339930893	0	0	1	1.04144286908	-16.0920768795	345	1	1.05	0.95	;
	18	1	572.489643589	57.2489643589	0	0	1	1.04130454087	-16.128567466	345	1	1.05	0.95	;
	19	2	538.765257637	53.896112791	0	0	1	1.04090082063	-16.1740309063	345	1	1.05	0.95	;
	20	2	275.379828587	27.8329759504	0	0	1	1.03972639555	-15.4188964066	154	1	1.1	0.9	;
	21	2	823.78830847	84.0122491805	0	0	1	1.03909275776	-16.5732344606	345	1	1.05	0.95	;
	22	1	678.418933495	67.8418933495	0	0	1	1.0414282239	-15.9723153376	345	1	1.05	0.95	;
	23	1	397.004934988	39.7004934988	0	0	1	1.04012952723	-16.2310081886	345	1	1.05	0.95	;
	24	1	649.508084735	64.9508084735	0	0	1	1.0401793775	-16.3579072529	154	1	1.1	0.9	;
	25	1	525.239543969	52.5239543969	0	0	1	1.03952779276	-16.4727527231	154	1	1.1	0.9	;
	26	1	619.933893971	61.9933893971	0	0	1	1.04007107515	-16.3897504338	345	1	1.05	0.95	;
	27	2	-263.013356303	3.53124931047	0	0	1	1.04141343235	-16.1384945111	345	1	1.05	0.95	;
	28	1	140.546069672	14.0546069672	0	0	1	1.03297804463	-11.4493681445	765	1	1.05	0.95	;
	29	1	683.501927378	68.3504710033	0	0	1	1.04034708328	-15.9921539086	345	1	1.05	0.95	;
	30	1	531.070247549	53.1070247549	0	0	1	1.04029539174	-15.9951536737	154	1	1.1	0.9	;
	31	1	431.903817405	43.1912979527	0	0	1	1.03929388928	-16.2963234117	154	1	1.1	0.9	;
	32	1	178.078973812	17.8078973812	0	0	1	1.03989512081	-16.2576929113	345	1	1.05	0.95	;
	33	1	513.522896938	51.3522896938	0	0	1	1.03962573524	-16.2733610872	154	1	1.1	0.9	;
	34	2	1148.43392487	114.844031618	0	0	1	1.04034296394	-16.3728284331	345	1	1.05	0.95	;
	35	1	699.639619636	69.9639619636	0	0	1	1.03821012708	-16.4205384815	154	1	1.1	0.9	;
	36	1	807.114235275	80.7114235275	0	0	1	1.04039257345	-15.9502795681	345	1	1.05	0.95	;
	37	1	989.5062455	98.95062455	0	0	1	1.03953285907	-16.2946517269	345	1	1.05	0.95	;
	38	1	400.76132347	40.076132347	0	0	1	1.03780240662	-15.1044766054	345	1	1.05	0.95	;
	39	1	773.181425548	77.3181425548	0	0	1	1.03543370167	-16.8335126347	154	1	1.1	0.9	;
	40	2	1147.88468993	117.201136226	0	0	1	1.03965769266	-15.4645680685	345	1	1.05	0.95	;
	41	1	211.768264556	21.1768264556	0	0	1	1.02861397786	-10.0674342267	154	1	1.1	0.9	;
	42	2	1292.42416003	129.242416003	0	0	1	1.03006250581	-13.771851184	154	1	1.1	0.9	;
	43	2	673.592127997	67.3624498991	0	0	1	1.03652446859	-16.3432639844	154	1	1.1	0.9	;
	44	1	207.816956313	20.7832172661	0	0	1	1.03853888541	-15.8528594929	345	1	1.05	0.95	;
	45	1	380.53047401	38.053047401	0	0	1	1.03759091183	-15.24315644	345	1	1.05	0.95	;
	46	1	1197.09443563	119.709443563	0	0	1	1.03791196633	-15.0193436988	345	1	1.05	0.95	;
	47	1	3032.0492354	303.205602234	0	0	1	1.03501248859	-16.4632759139	345	1	1.05	0.95	;
	48	2	211.499404764	21.1499404764	0	0	1	1.03835204303	-14.9358793889	154	1	1.1	0.9	;
	49	1	432.712914665	43.2712914665	0	0	1	1.03592966131	-14.7365596175	154	1	1.1	0.9	;
	50	1	514.571527383	51.4571527383	0	0	1	1.03824019576	-13.9533053185	765	1	1.05	0.95	;
	51	1	2061.50300149	206.150300149	0	0	1	1.03636700053	-14.400556007	345	1	1.05	0.95	;
	52	2	474.412372987	47.4412372987	0	0	2	1.03113098051	-11.1544009939	154	1	1.1	0.9	;
	53	2	984.59399169	98.459399169	0	0	2	1.04728376109	-9.44341179655	765	1	1.05	0.95	;
	54	1	423.039293014	42.3039293014	0	0	2	1.0371618839	-12.9966583492	345	1	1.05	0.95	;
	55	1	1231.38978382	123.139375996	0	0	2	1.03934799402	-12.3078746013	345	1	1.05	0.95	;
	56	1	171.084370015	17.1084370015	0	0	2	1.03221748174	-12.5983218761	154	1	1.1	0.9	;
	57	1	1938.8968948	193.889992352	0	0	2	1.03863793281	-12.6373376639	345	1	1.05	0.95	;
	58	1	1451.3984978	145.140698087	0	0	2	1.04795519989	-9.17142461785	345	1	1.05	0.95	;
	59	2	131.747093208	13.1792211187	0	0	2	1.04997871169	-8.2171420911	345	1	1.05	0.95	;
	60	1	191.929888584	19.1929888584	0	0	2	1.04352886036	-11.0152386398	345	1	1.05	0.95	;
	61	1	918.853413896	91.8853987018	0	0	2	1.03748613728	-12.8153831304	154	1	1.1	0.9	;
	62	1	1081.49062013	108.149330102	0	0	2	1.03929715865	-12.7743573961	765	1	1.05	0.95	;
	63	1	149.834866431	14.9834866431	0	0	2	1.04617057207	-10.2678085938	765	1	1.05	0.95	;
	64	1	545.951946039	54.5951946039	0	0	2	1.03675228062	-11.8149667804	345	1	1.05	0.95	;
	65	1	78.313700273	12.9836256205	0	0	3	1.03144888863	0.363542469	154	1	1.1	0.9	;
	66	1	30.604120725	3.75062499373	0	0	3	1.03301266665	-8.04013322074	154	1	1.1	0.9	;
	67	1	26.7228713605	2.97161147394	0	0	3	1.03024714515	-5.13683981624	154	1	1.1	0.9	;
	68	1	-7.34033874086	4.69168834469	0	0	3	1.03472942973	2.12066464374	345	1	1.05	0.95	;
	69	1	7.8478542277	4.88192982468	0	0	3	1.03009337051	-3.00051020987	154	1	1.1	0.9	;
	70	1	268.630017135	26.9261613194	0	0	3	1.03239475765	-7.92927374772	154	1	1.1	0.9	;
	71	2	303.666240951	30.3666240951	0	0	3	1.03688720073	4.06807024829	345	1	1.05	0.95	;
	72	1	106.019064354	10.6019064354	0	0	3	1.02995094583	-6.9220067264	154	1	1.1	0.9	;
	73	2	332.82326317	34.4293814001	0	0	3	1.03405805187	6.36671309895	345	1	1.05	0.95	;
	74	1	-102.843993924	9.79120917988	0	0	3	1.03053149887	-6.87071272689	154	1	1.1	0.9	;
	75	2	202.947522659	20.319804967	0	0	3	1.03633860863	8.29238582365	345	1	1.05	0.95	;
	76	1	25.7641830583	9.04566406861	0	0	3	1.02141071076	1.20339817224	154	1	1.1	0.9	;
	77	1	373.037243461	37.3037243461	0	0	3	1.02829883764	-8.27135622065	154	1	1.1	0.9	;
	78	1	-808.680483677	9.0284817647	0	0	3	1.03705532978	-4.26147587355	154	1	1.1	0.9	;
	79	1	164.57433191	16.457433191	0	0	3	1.01811435399	-1.85236204872	154	1	1.1	0.9	;
	80	1	-2406.64178056	4.36693198456	0	0	3	1.02210201809	7.26231918676	765	1	1.05	0.95	;
	81	1	238.351008457	23.8360892943	0	0	3	1.02238298105	-4.08586741382	345	1	1.05	0.95	;
	82	2	103.41788927	10.3640814079	0	0	3	1.03050730508	11.557625097	765	1	1.05	0.95	;
	83	1	272.544534866	27.2551514487	0	0	3	1.01125898849	-3.99334785432	154	1	1.1	0.9	;
	84	1	380.074897266	39.7572476375	0	0	3	1.02911990938	-10.5985714459	345	1	1.05	0.95	;
	85	1	256.696280873	25.6696280873	0	0	3	1.01265111696	0.81239532398	154	1	1.1	0.9	;
	86	1	251.372524428	25.1374865726	0	0	3	1.01688763117	-0.221999190751	345	1	1.05	0.95	;
	87	2	20.1799970445	5.75072551792	0	0	3	1.0171973267	0.101662854373	345	1	1.05	0.95	;
	88	1	-1026.84120357	1.6170139507	0	0	3	1.01808836097	9.69521857912	154	1	1.1	0.9	;
	89	1	87.2193023015	8.72262284854	0	0	3	1.01477390824	-3.39198418407	154	1	1.1	0.9	;
	90	1	166.837423443	17.468871365	0	0	3	1.01488093271	-0.979959399588	154	1	1.1	0.9	;
	91	1	58.4774681851	5.84774681851	0	0	3	1.03069118231	-10.243764441	154	1	1.1	0.9	;
	92	1	-179.049907233	2.96789533717	0	0	3	1.01535300078	0.617798254504	345	1	1.05	0.95	;
	93	1	115.699562915	11.5712155162	0	0	3	1.01722402066	-6.37649847681	154	1	1.1	0.9	;
	94	1	-677.643215584	4.2772038921	0	0	3	1.01064453886	7.95202207591	154	1	1.1	0.9	;
	95	1	65.726561682	6.5726561682	0	0	3	1.01076087957	-0.530954106463	345	1	1.05	0.95	;
	96	2	170.045628665	17.0045628665	0	0	4	1.04345184389	-9.45477105318	154	1	1.1	0.9	;
	97	1	52.9106798486	5.29106798486	0	0	4	1.04568745799	-9.25755990662	345	1	1.05	0.95	;
	98	1	269.811869894	27.2786535028	0	0	4	1.03409496627	-11.9470199695	154	1	1.1	0.9	;
	99	2	875.218197388	87.5218197388	0	0	4	1.03523730275	-12.1963559033	154	1	1.1	0.9	;
	100	2	205.105409018	20.5105409018	0	0	4	1.0498444194	-7.24189267433	345	1	1.05	0.95	;
	101	1	319.876323134	31.9876323134	0	0	4	1.0389829419	-11.5133979002	154	1	1.1	0.9	;
	102	1	94.1704597015	9.41704597015	0	0	4	1.0355794195	-10.2762067682	345	1	1.05	0.95	;
	103	1	98.7223795839	9.87223795839	0	0	4	1.04525522444	-8.9448369466	154	1	1.1	0.9	;
	104	1	208.553613101	20.8553613101	0	0	4	1.04153712299	-10.0400945448	345	1	1.05	0.95	;
	105	1	139.807786865	13.9807786865	0	0	4	1.03026199493	-10.2005039647	154	1	1.1	0.9	;
	106	2	165.459946792	16.5459946792	0	0	4	1.04713947978	-8.28671380306	154	1	1.1	0.9	;
	107	1	-5.91778512956	3.14166529202	0	0	4	1.02924509296	-9.13056214209	345	1	1.05	0.95	;
	108	1	858.785146999	85.8785146999	0	0	4	1.04578371443	-9.1299901883	345	1	1.05	0.95	;
	109	1	449.718296472	44.9718296472	0	0	4	1.0436190598	-9.49542277878	345	1	1.05	0.95	;
	110	1	263.179742033	26.3179742033	0	0	4	1.03604219614	-10.5221440427	154	1	1.1	0.9	;
	111	1	166.661703704	16.6661703704	0	0	4	1.04328795928	-8.80328774506	345	1	1.05	0.95	;
	112	1	30.8114866138	3.08114866138	0	0	4	1.03375261526	-9.89979251915	154	1	1.1	0.9	;
	113	1	654.944228845	65.4944228845	0	0	4	1.0344536547	-10.6214675367	154	1	1.1	0.9	;
	114	1	72.0913313804	7.24463567791	0	0	4	1.04270672091	-9.24044478518	154	1	1.1	0.9	;
	115	1	31.5910254918	3.15910254918	0	0	4	1.03495928448	-9.09636597104	154	1	1.1	0.9	;
	116	1	44.5961135404	4.45961135404	0	0	4	1.03488448289	-9.44406407528	154	1	1.1	0.9	;
	117	1	251.965620784	26.9277605716	0	0	4	1.0435050441	-9.2337641196	154	1	1.1	0.9	;
	118	1	97.7969765432	9.77969765432	0	0	4	1.0451110602	-6.84969018236	154	1	1.1	0.9	;
	119	1	98.5228979801	9.85228979801	0	0	4	1.03589539585	-8.18948218903	345	1	1.05	0.95	;
	120	1	40.3967244707	4.03967244707	0	0	4	1.0427318061	-8.45848059675	154	1	1.1	0.9	;
	121	1	94.0104572222	9.40104572222	0	0	4	1.04269060308	-9.22420142192	154	1	1.1	0.9	;
	122	1	77.8499750353	7.78499750353	0	0	4	1.0403153571	-9.06833980636	154	1	1.1	0.9	;
	123	1	63.3177170163	6.33177170163	0	0	4	1.03831597005	-8.80234533489	154	1	1.1	0.9	;
	124	2	123.050173262	12.3050173262	0	0	4	1.04788296555	-3.71682000005	345	1	1.05	0.95	;
	125	1	26.2067991344	2.62067991344	0	0	4	1.03790910293	-8.98011239591	154	1	1.1	0.9	;
	126	1	436.590135536	43.6590135536	0	0	4	1.03990228588	-8.53415226375	345	1	1.05	0.95	;
	127	1	344.030516826	34.4030516826	0	0	4	1.03738328441	-9.51868365413	154	1	1.1	0.9	;
	128	1	519.796214813	51.9796214813	0	0	4	1.03526956787	-10.5306907527	154	1	1.1	0.9	;
	129	1	61.523695977	6.1523695977	0	0	4	1.04151152285	-10.7799302432	154	1	1.1	0.9	;
	130	1	29.0570973496	7.7829269741	0	0	4	1.03910313268	-9.16308233329	345	1	1.05	0.95	;
	131	1	199.450005112	19.9450005112	0	0	4	1.03698760624	-10.3180130038	154	1	1.1	0.9	;
	132	1	107.065608818	10.7065608818	0	0	4	1.04222326583	-10.5797796699	154	1	1.1	0.9	;
	133	1	285.921170431	32.045305829	0	0	4	1.03001704666	-9.54023345123	345	1	1.05	0.95	;
	134	1	730.090772322	73.0090772322	0	0	4	1.02897754538	-9.12213886941	345	1	1.05	0.95	;
	135	1	154.401489965	15.4943666019	0	0	4	1.04101632932	-10.7949258358	154	1	1.1	0.9	;
	136	1	178.177787512	17.8177787512	0	0	4	1.0391972351	-9.87696394505	345	1	1.05	0.95	;
	137	2	2089.80243825	212.046804845	0	0	4	1.02606989245	-9.78962147392	345	1	1.05	0.95	;
	138	1	45.8218978653	4.58218978653	0	0	4	1.03496911404	-9.97630591817	154	1	1.1	0.9	;
	139	1	48.6143312852	4.86143312852	0	0	4	1.0432203067	-10.5641754864	154	1	1.1	0.9	;
	140	1	18.305484237	5.62174235074	0	0	4	1.03879702022	-10.1274696419	154	1	1.1	0.9	;
	141	1	58.434744201	5.8434744201	0	0	4	1.04045435319	-10.1201913786	154	1	1.1	0.9	;
	142	1	79.4003998325	7.94003998325	0	0	4	1.03235396081	-10.0395080804	154	1	1.1	0.9	;
	143	1	114.094274249	11.4161730365	0	0	4	1.04148467361	-10.1905257527	154	1	1.1	0.9	;
	144	1	52.2770735293	5.25155023104	0	0	4	1.04098393059	-10.825916139	154	1	1.1	0.9	;
	145	1	47.8029869471	16.3128901497	0	0	4	1.04000901369	-10.4632895854	154	1	1.1	0.9	;
	146	1	-12.7261142549	4.77114104857	0	0	5	1.00478106858	-2.28386318419	154	1	1.1	0.9	;
	147	1	64.6752271873	6.46752271873	0	0	5	1.02929897189	-9.44130174734	154	1	1.1	0.9	;
	148	1	350.159129417	35.0159129417	0	0	5	0.990346355915	-6.95144505499	154	1	1.1	0.9	;
	149	2	1385.26608152	138.526608152	0	0	5	0.997448594093	-5.09523106449	345	1	1.05	0.95	;
	150	1	631.898559187	77.0344104904	0	0	5	0.997817536466	0.616431551979	345	1	1.05	0.95	;
	151	1	497.510813693	65.1062217943	0	0	5	0.997070045822	0.847942789182	345	1	1.05	0.95	;
	152	1	291.786732874	29.1786732874	0	0	5	0.99965022678	-4.29052328029	345	1	1.05	0.95	;
	153	1	228.646710548	22.8646710548	0	0	5	0.988843880657	-2.38884268511	154	1	1.1	0.9	;
	154	1	156.50019258	15.6501198604	0	0	5	0.995312150222	-5.49557092057	154	1	1.1	0.9	;
	155	1	438.516921158	43.8535737872	0	0	5	0.995490740941	-5.80940925169	154	1	1.1	0.9	;
	156	1	472.44591084	47.244591084	0	0	5	0.993036749268	-4.37680930764	154	1	1.1	0.9	;
	157	1	222.411094851	22.2411094851	0	0	5	0.996742590011	-6.00601047191	154	1	1.1	0.9	;
	158	1	-470.663110095	58.1857630373	0	0	5	0.994132013197	1.26239534349	154	1	1.1	0.9	;
	159	1	404.686985459	40.4686985459	0	0	5	0.99324737744	-3.13387825774	345	1	1.05	0.95	;
	160	1	1154.96518793	115.496518793	0	0	5	1.00448152314	-6.84897140455	154	1	1.1	0.9	;
	161	1	190.446446959	19.0446446959	0	0	5	1.00624481657	-4.37826271227	345	1	1.05	0.95	;
	162	1	68.7190175156	6.87190175156	0	0	5	1.00616682632	-5.55771226811	154	1	1.1	0.9	;
	163	1	72.2788602194	7.22788602194	0	0	5	0.996778567274	-1.81905802142	345	1	1.05	0.95	;
	164	1	57.8001326886	6.07855676876	0	0	5	1.0067798733	-4.94077643047	154	1	1.1	0.9	;
	165	1	1772.38712658	177.239258242	0	0	5	0.990339635458	-0.224414682243	345	1	1.05	0.95	;
	166	2	558.249764249	56.9294615809	0	0	5	0.996345140178	2.59005692004	345	1	1.05	0.95	;
	167	2	2365.48213339	236.548909288	0	0	5	0.995466788184	2.16811379279	345	1	1.05	0.95	;
	168	1	150.640904995	15.0640904995	0	0	5	1.00196298206	-0.227739625523	765	1	1.05	0.95	;
	169	1	42.4531928408	4.24531928408	0	0	5	1.00712908042	-5.47923939359	154	1	1.1	0.9	;
	170	1	158.655681465	18.6547439174	0	0	5	0.994675933574	-1.17058039033	154	1	1.1	0.9	;
	171	1	19.5434896377	5.22215334867	0	0	5	1.00999520155	-4.45780342277	345	1	1.05	0.95	;
	172	2	416.651261062	55.0748466524	0	0	5	0.99194373145	1.48064068377	154	1	1.1	0.9	;
	173	1	31.129688719	5.71507841799	0	0	5	1.00926243107	-4.39793145408	345	1	1.05	0.95	;
	174	1	414.421950407	41.4421950407	0	0	5	1.00334914732	-3.89842696902	345	1	1.05	0.95	;
	175	2	185.803672643	18.7898614143	0	0	5	1.00059288354	5.17425497296	765	1	1.05	0.95	;
	176	1	544.490136811	54.4490136811	0	0	5	0.997771847895	-2.78484428835	345	1	1.05	0.95	;
	177	1	696.179570625	69.6186857297	0	0	5	0.992321774712	-1.99183197319	345	1	1.05	0.95	;
	178	1	786.936751739	78.6940016339	0	0	5	0.985477435846	-3.13073158052	154	1	1.1	0.9	;
	179	1	420.032853381	42.0032853381	0	0	5	0.995876201967	3.29624773565	345	1	1.05	0.95	;
	180	1	392.854914138	39.2854914138	0	0	5	1.00379038307	-4.83545700816	154	1	1.1	0.9	;
	181	1	356.148290305	35.6148290305	0	0	5	0.995385351327	2.748228018	345	1	1.05	0.95	;
	182	1	642.952422673	64.2966216103	0	0	5	0.986775598076	-3.22030367036	345	1	1.05	0.95	;
	183	1	290.854459695	29.0859089335	0	0	5	0.992578421759	-1.99024755823	345	1	1.05	0.95	;
	184	1	574.673214702	57.4684482041	0	0	5	0.995332590152	3.16988462586	345	1	1.05	0.95	;
	185	1	328.423360452	32.8423360452	0	0	5	0.994026710044	2.59552184693	154	1	1.1	0.9	;
	186	2	491.769969386	49.1800339187	0	0	5	0.995881988323	3.27207995451	345	1	1.05	0.95	;
	187	1	67.9703820619	6.79703820619	0	0	5	0.99585261063	3.26269634051	345	1	1.05	0.95	;
	188	1	62.0335545882	6.20774080819	0	0	5	1.02312242306	-7.41050346775	154	1	1.1	0.9	;
	189	1	111.477467676	11.3316212676	0	0	5	1.00379272338	-2.18832609172	154	1	1.1	0.9	;
	190	3	200.190708698	20.3332556824	0	0	5	1	0	345	1	1.05	0.95	;
	191	1	282.982368998	28.2996176573	0	0	5	1.00068070691	-1.77627848642	154	1	1.1	0.9	;
	192	2	141.351556243	14.1358366179	0	0	5	1.00327915601	-0.593510683675	154	1	1.1	0.9	;
	193	2	40.3210883397	4.03210883397	0	0	5	1.02586904085	-6.4256961426	345	1	1.05	0.95	;
];

% generator data
%	bus	Pg	Qg	Qmax	Qmin	Vg	mBase	status	Pmax	Pmin	Pc1	Pc2	Qc1min	Qc1max	Qc2min	Qc2max	ramp_agc	ramp_10	ramp_30	ramp_q	apf
mpc.gen = [
	3	0	0	362.5	-362.5	1.0375354704	100	0	725	377	0	0	0	0	0	0	0	120.8333333	362.5	362.5	0	;
	3	0	0	362.5	-362.5	1.0375354704	100	0	725	377	0	0	0	0	0	0	0	120.8333333	362.5	362.5	0	;
	3	0	0	437.1	-437.1	1.0375354704	100	0	874.2	454.584	0	0	0	0	0	0	0	145.7	437.1	437.1	0	;
	4	0	0	262.15	-262.15	1.03930121043	100	0	524.3	272.636	0	0	0	0	0	0	0	87.38333333	262.15	262.15	0	;
	4	0	0	429.2	-429.2	1.03930121043	100	0	858.4	446.368	0	0	0	0	0	0	0	143.0666667	429.2	429.2	0	;
	4	0	0	429.2	-429.2	1.03930121043	100	0	858.4	446.368	0	0	0	0	0	0	0	143.0666667	429.2	429.2	0	;
	8	0	0	423.8	-423.8	1.03901899614	100	0	847.6	440.752	0	0	0	0	0	0	0	141.2666667	423.8	423.8	0	;
	8	0	0	423.8	-423.8	1.03901899614	100	0	847.6	440.752	0	0	0	0	0	0	0	141.2666667	423.8	423.8	0	;
	8	0	0	257.75	-257.75	1.03901899614	100	0	515.5	268.06	0	0	0	0	0	0	0	85.91666667	257.75	257.75	0	;
	9	0	0	57.705	-57.705	1.04064611564	100	0	115.41	60.0132	0	0	0	0	0	0	0	19.235	57.705	57.705	0	;
	9	0	0	18.5	-18.5	1.04064611564	100	0	37	19.24	0	0	0	0	0	0	0	6.166666667	18.5	18.5	0	;
	10	0	0	300	-300	1.04088539867	100	0	600	312	0	0	0	0	0	0	0	100	300	300	0	;
	10	299.680510838	53.0217584258	150	-150	1.04088539867	100	1	300	156	0	0	0	0	0	0	0	50	150	150	0	;
	19	0	0	184.5865	-184.5865	1.04090082063	100	0	369.173	191.96996	0	0	0	0	0	0	0	61.52883333	184.5865	184.5865	0	;
	19	368.739646332	46.837340372	184.5865	-184.5865	1.04090082063	100	1	369.173	191.96996	0	0	0	0	0	0	0	61.52883333	184.5865	184.5865	0	;
	20	363.291015999	53.5083096354	181.9055	-181.9055	1.03972639555	100	1	363.811	189.18172	0	0	0	0	0	0	0	60.63516667	181.9055	181.9055	0	;
	21	449.671546453	46.4014867058	225	-225	1.03909275776	100	1	450	234	0	0	0	0	0	0	0	75	225	225	0	;
	21	0	0	225	-225	1.03909275776	100	0	450	234	0	0	0	0	0	0	0	75	225	225	0	;
	21	0	0	225	-225	1.03909275776	100	0	450	234	0	0	0	0	0	0	0	75	225	225	0	;
	21	0	0	225	-225	1.03909275776	100	0	450	234	0	0	0	0	0	0	0	75	225	225	0	;
	24	0	0	10.5	-10.5	1.0401793775	100	0	21	10.92	0	0	0	0	0	0	0	3.5	10.5	10.5	0	;
	26	0	0	0	0	1.04007107515	100	0	0	0	0	0	0	0	0	0	0	0	0	0	0	;
	27	0	0	63.5	-63.5	1.04141343235	100	0	127	66.04	0	0	0	0	0	0	0	21.16666667	63.5	63.5	0	;
	27	186.931151568	55.7185241282	93.65	-93.65	1.04141343235	100	1	187.3	97.396	0	0	0	0	0	0	0	31.21666667	93.65	93.65	0	;
	34	224.694287664	57.2285305415	112.5	-112.5	1.04034296394	100	1	225	117	0	0	0	0	0	0	0	37.5	112.5	112.5	0	;
	34	0	0	112.5	-112.5	1.04034296394	100	0	225	117	0	0	0	0	0	0	0	37.5	112.5	112.5	0	;
	34	0	0	112.5	-112.5	1.04034296394	100	0	225	117	0	0	0	0	0	0	0	37.5	112.5	112.5	0	;
	34	224.640076242	57.2285305415	112.5	-112.5	1.04034296394	100	1	225	117	0	0	0	0	0	0	0	37.5	112.5	112.5	0	;
	34	0	0	112.5	-112.5	1.04034296394	100	0	225	117	0	0	0	0	0	0	0	37.5	112.5	112.5	0	;
	34	224.640076242	57.2285305415	112.5	-112.5	1.04034296394	100	1	225	117	0	0	0	0	0	0	0	37.5	112.5	112.5	0	;
	34	0	0	112.5	-112.5	1.04034296394	100	0	225	117	0	0	0	0	0	0	0	37.5	112.5	112.5	0	;
	34	224.581713653	57.2285305415	112.5	-112.5	1.04034296394	100	1	225	117	0	0	0	0	0	0	0	37.5	112.5	112.5	0	;
	34	0	0	251.7695	-251.7695	1.04034296394	100	0	503.539	261.84028	0	0	0	0	0	0	0	83.92316667	251.7695	251.7695	0	;
	34	0	0	254.454	-254.454	1.04034296394	100	0	508.908	264.63216	0	0	0	0	0	0	0	84.818	254.454	254.454	0	;
	34	0	0	225	-225	1.04034296394	100	0	450	234	0	0	0	0	0	0	0	75	225	225	0	;
	34	449.669830141	46.6996933985	225	-225	1.04034296394	100	1	450	234	0	0	0	0	0	0	0	75	225	225	0	;
	34	0	0	225	-225	1.04034296394	100	0	450	234	0	0	0	0	0	0	0	75	225	225	0	;
	34	0	0	287.3	-287.3	1.04034296394	100	0	574.6	298.792	0	0	0	0	0	0	0	95.76666667	287.3	287.3	0	;
	34	0	0	287.3	-287.3	1.04034296394	100	0	574.6	298.792	0	0	0	0	0	0	0	95.76666667	287.3	287.3	0	;
	34	0	0	187.8	-187.8	1.04034296394	100	0	375.6	195.312	0	0	0	0	0	0	0	62.6	187.8	187.8	0	;
	34	0	0	187.8	-187.8	1.04034296394	100	0	375.6	195.312	0	0	0	0	0	0	0	62.6	187.8	187.8	0	;
	34	0	0	187.8	-187.8	1.04034296394	100	0	375.6	195.312	0	0	0	0	0	0	0	62.6	187.8	187.8	0	;
	36	0	0	0	0	1.04039257345	100	0	0	0	0	0	0	0	0	0	0	0	0	0	0	;
	36	0	0	0	0	1.04039257345	100	0	0	0	0	0	0	0	0	0	0	0	0	0	0	;
	36	0	0	206.3	-206.3	1.04039257345	100	0	412.6	214.552	0	0	0	0	0	0	0	68.76666667	206.3	206.3	0	;
	36	0	0	73.157	-73.157	1.04039257345	100	0	146.314	76.08328	0	0	0	0	0	0	0	24.38566667	73.157	73.157	0	;
	37	0	0	12	-12	1.03953285907	100	0	24	12.48	0	0	0	0	0	0	0	4	12	12	0	;
	39	0	0	240.845	-240.845	1.03543370167	100	0	481.69	250.4788	0	0	0	0	0	0	0	80.28166667	240.845	240.845	0	;
	39	0	0	240.845	-240.845	1.03543370167	100	0	481.69	250.4788	0	0	0	0	0	0	0	80.28166667	240.845	240.845	0	;
	40	0	0	30	-30	1.03965769266	100	0	60	31.2	0	0	0	0	0	0	0	10	30	30	0	;
	40	0	0	375.6	-375.6	1.03965769266	100	0	751.2	390.624	0	0	0	0	0	0	0	125.2	375.6	375.6	0	;
	40	0	0	0	0	1.03965769266	100	0	0	0	0	0	0	0	0	0	0	0	0	0	0	;
	40	0	0	0	0	1.03965769266	100	0	0	0	0	0	0	0	0	0	0	0	0	0	0	;
	40	869.626395886	31.665618102	435	-435	1.03965769266	100	1	870	348	0	0	0	0	0	0	0	95.7	287.1	435	0	;
	40	869.626395886	31.665618102	435	-435	1.03965769266	100	1	870	348	0	0	0	0	0	0	0	95.7	287.1	435	0	;
	40	869.626395886	31.665618102	435	-435	1.03965769266	100	1	870	348	0	0	0	0	0	0	0	95.7	287.1	435	0	;
	40	869.626395886	31.665618102	435	-435	1.03965769266	100	1	870	348	0	0	0	0	0	0	0	95.7	287.1	435	0	;
	43	144.426460334	49.9772305459	72.394	-72.394	1.03652446859	100	1	144.788	75.28976	0	0	0	0	0	0	0	24.13133333	72.394	72.394	0	;
	43	0	0	0	0	1.03652446859	100	0	0	0	0	0	0	0	0	0	0	0	0	0	0	;
	45	0	0	255.9	-255.9	1.03759091183	100	0	511.8	266.136	0	0	0	0	0	0	0	85.3	255.9	255.9	0	;
	47	0	0	0	0	1.03501248859	100	0	0	0	0	0	0	0	0	0	0	0	0	0	0	;
	47	0	0	0	0	1.03501248859	100	0	0	0	0	0	0	0	0	0	0	0	0	0	0	;
	47	0	0	0	0	1.03501248859	100	0	0	0	0	0	0	0	0	0	0	0	0	0	0	;
	47	0	0	0	0	1.03501248859	100	0	0	0	0	0	0	0	0	0	0	0	0	0	0	;
	47	0	0	434.25	-434.25	1.03501248859	100	0	868.5	451.62	0	0	0	0	0	0	0	144.75	434.25	434.25	0	;
	47	0	0	431.65	-431.65	1.03501248859	100	0	863.3	448.916	0	0	0	0	0	0	0	143.8833333	431.65	431.65	0	;
	48	0	0	218.05	-218.05	1.03835204303	100	0	436.1	226.772	0	0	0	0	0	0	0	72.68333333	218.05	218.05	0	;
	48	0	0	189.19	-189.19	1.03835204303	100	0	378.38	196.7576	0	0	0	0	0	0	0	63.06333333	189.19	189.19	0	;
	48	377.953748772	47.4258672704	189.19	-189.19	1.03835204303	100	1	378.38	196.7576	0	0	0	0	0	0	0	63.06333333	189.19	189.19	0	;
	49	0	0	384.915	-384.915	1.03592966131	100	0	769.83	400.3116	0	0	0	0	0	0	0	128.305	384.915	384.915	0	;
	53	0	0	250.375	-250.375	1.04728376109	100	0	500.75	260.39	0	0	0	0	0	0	0	83.45833333	250.375	250.375	0	;
	53	0	0	266.5	-266.5	1.04728376109	100	0	533	277.16	0	0	0	0	0	0	0	88.83333333	266.5	266.5	0	;
	53	0	0	191	-191	1.04728376109	100	0	382	198.64	0	0	0	0	0	0	0	63.66666667	191	191	0	;
	53	0	0	423	-423	1.04728376109	100	0	846	439.92	0	0	0	0	0	0	0	141	423	423	0	;
	53	0	0	0	0	1.04728376109	100	0	0	0	0	0	0	0	0	0	0	0	0	0	0	;
	53	0	0	0	0	1.04728376109	100	0	0	0	0	0	0	0	0	0	0	0	0	0	0	;
	53	499.539730388	26.8411710507	250	-250	1.04728376109	100	1	500	200	0	0	0	0	0	0	0	55	165	250	0	;
	53	499.539730388	26.8411710507	250	-250	1.04728376109	100	1	500	200	0	0	0	0	0	0	0	55	165	250	0	;
	53	499.539730388	26.8411710507	250	-250	1.04728376109	100	1	500	200	0	0	0	0	0	0	0	55	165	250	0	;
	53	499.539730388	26.8411710507	250	-250	1.04728376109	100	1	500	200	0	0	0	0	0	0	0	55	165	250	0	;
	53	499.539730388	26.8411710507	250	-250	1.04728376109	100	1	500	200	0	0	0	0	0	0	0	55	165	250	0	;
	53	499.539730388	26.8411710507	250	-250	1.04728376109	100	1	500	200	0	0	0	0	0	0	0	55	165	250	0	;
	53	1019.55614189	12.4144975129	510	-510	1.04728376109	100	1	1020	408	0	0	0	0	0	0	0	112.2	336.6	510	0	;
	53	1019.55614189	12.4144975129	510	-510	1.04728376109	100	1	1020	408	0	0	0	0	0	0	0	112.2	336.6	510	0	;
	57	0	0	50.85	-50.85	1.03863793281	100	0	101.7	52.884	0	0	0	0	0	0	0	16.95	50.85	50.85	0	;
	58	0	0	0	0	1.04795519989	100	0	0	0	0	0	0	0	0	0	0	0	0	0	0	;
	59	0	0	173.165	-173.165	1.04997871169	100	0	346.33	180.0916	0	0	0	0	0	0	0	57.72166667	173.165	173.165	0	;
	59	0	0	0	0	1.04997871169	100	0	0	0	0	0	0	0	0	0	0	0	0	0	0	;
	59	0	0	0	0	1.04997871169	100	0	0	0	0	0	0	0	0	0	0	0	0	0	0	;
	59	0	0	0	0	1.04997871169	100	0	0	0	0	0	0	0	0	0	0	0	0	0	0	;
	59	0	0	0	0	1.04997871169	100	0	0	0	0	0	0	0	0	0	0	0	0	0	0	;
	59	0	0	0	0	1.04997871169	100	0	0	0	0	0	0	0	0	0	0	0	0	0	0	;
	59	0	0	0	0	1.04997871169	100	0	0	0	0	0	0	0	0	0	0	0	0	0	0	;
	59	499.535246062	25.0226845536	250	-250	1.04997871169	100	1	500	200	0	0	0	0	0	0	0	55	165	250	0	;
	59	499.535246062	25.0226845536	250	-250	1.04997871169	100	1	500	200	0	0	0	0	0	0	0	55	165	250	0	;
	59	1049.54208649	10.5187470689	525	-525	1.04997871169	100	1	1050	420	0	0	0	0	0	0	0	115.5	346.5	525	0	;
	59	1049.54208649	10.5187470689	525	-525	1.04997871169	100	1	1050	420	0	0	0	0	0	0	0	115.5	346.5	525	0	;
	62	0	0	0	0	1.03929715865	100	0	0	0	0	0	0	0	0	0	0	0	0	0	0	;
	64	0	0	265.2205	-265.2205	1.03675228062	100	0	530.441	275.82932	0	0	0	0	0	0	0	88.40683333	265.2205	265.2205	0	;
	70	0	0	215.6	-215.6	1.03239475765	100	0	431.2	224.224	0	0	0	0	0	0	0	71.86666667	215.6	215.6	0	;
	71	1039.34196003	21.7062761452	520	-520	1.03688720073	100	1	1040	416	0	0	0	0	0	0	0	114.4	343.2	520	0	;
	73	0	0	0	0	1.03405805187	100	0	0	0	0	0	0	0	0	0	0	0	0	0	0	;
	73	0	0	0	0	1.03405805187	100	0	0	0	0	0	0	0	0	0	0	0	0	0	0	;
	73	594.37001786	39.3626323232	297.5	-297.5	1.03405805187	100	1	595	238	0	0	0	0	0	0	0	65.45	196.35	297.5	0	;
	73	594.37001786	39.3626323232	297.5	-297.5	1.03405805187	100	1	595	238	0	0	0	0	0	0	0	65.45	196.35	297.5	0	;
	79	0	0	424	-424	1.01811435399	100	0	848	440.96	0	0	0	0	0	0	0	141.3333333	424	424	0	;
	75	485.122159901	45.4940299382	511	-511	1.03633860863	100	1	1022	408.8	0	0	0	0	0	0	0	112.42	337.26	511	0	;
	75	635.293427409	45.4940299382	511	-511	1.03633860863	100	1	1022	408.8	0	0	0	0	0	0	0	112.42	337.26	511	0	;
	82	903.854916887	49.1850363173	475	-475	1.03050730508	100	1	950	902.5	0	0	0	0	0	0	0	28.5	85.5	475	0	;
	82	903.854916887	49.1850363173	475	-475	1.03050730508	100	1	950	902.5	0	0	0	0	0	0	0	28.5	85.5	475	0	;
	82	951.381563269	48.4482380451	500	-500	1.03050730508	100	1	1000	950	0	0	0	0	0	0	0	30	90	500	0	;
	82	951.381563269	48.4482380451	500	-500	1.03050730508	100	1	1000	950	0	0	0	0	0	0	0	30	90	500	0	;
	82	951.381563269	48.4482380451	500	-500	1.03050730508	100	1	1000	950	0	0	0	0	0	0	0	30	90	500	0	;
	82	951.381563269	48.4482380451	500	-500	1.03050730508	100	1	1000	950	0	0	0	0	0	0	0	30	90	500	0	;
	82	1331.59986964	44.7520382691	700	-700	1.03050730508	100	1	1400	1330	0	0	0	0	0	0	0	42	126	700	0	;
	87	361.464190765	24.0472664024	180.8	-180.8	1.0171973267	100	1	361.6	188.032	0	0	0	0	0	0	0	60.26666667	180.8	180.8	0	;
	98	0	0	44	-44	1.03409496627	100	0	88	45.76	0	0	0	0	0	0	0	14.66666667	44	44	0	;
	99	48.0145754934	8.77254922956	24.15	-24.15	1.03523730275	100	1	48.3	25.116	0	0	0	0	0	0	0	8.05	24.15	24.15	0	;
	100	449.55636564	22.9861943258	225	-225	1.0498444194	100	1	450	234	0	0	0	0	0	0	0	75	225	225	0	;
	100	0	0	225	-225	1.0498444194	100	0	450	234	0	0	0	0	0	0	0	75	225	225	0	;
	100	0	0	225	-225	1.0498444194	100	0	450	234	0	0	0	0	0	0	0	75	225	225	0	;
	100	549.536517563	18.4401944803	275	-275	1.0498444194	100	1	550	220	0	0	0	0	0	0	0	60.5	181.5	275	0	;
	100	499.53696723	20.6049481914	250	-250	1.0498444194	100	1	500	200	0	0	0	0	0	0	0	55	165	250	0	;
	100	0	0	0	0	1.0498444194	100	0	0	0	0	0	0	0	0	0	0	0	0	0	0	;
	100	0	0	0	0	1.0498444194	100	0	0	0	0	0	0	0	0	0	0	0	0	0	0	;
	100	499.53696723	20.6049481914	250	-250	1.0498444194	100	1	500	200	0	0	0	0	0	0	0	55	165	250	0	;
	100	499.53696723	20.6049481914	250	-250	1.0498444194	100	1	500	200	0	0	0	0	0	0	0	55	165	250	0	;
	100	1018.56534109	6.91272014851	509.515	-509.515	1.0498444194	100	1	1019.03	407.612	0	0	0	0	0	0	0	112.0933	336.2799	509.515	0	;
	100	1018.56534109	6.91272014851	509.515	-509.515	1.0498444194	100	1	1019.03	407.612	0	0	0	0	0	0	0	112.0933	336.2799	509.515	0	;
	106	1017.86465027	4.10789994438	509	-509	1.04713947978	100	1	1018	407.2	0	0	0	0	0	0	0	111.98	335.94	509	0	;
	108	0	0	359.2	-359.2	1.04578371443	100	0	718.4	373.568	0	0	0	0	0	0	0	119.7333333	359.2	359.2	0	;
	124	949.652261708	-8.38200375932	475	-475	1.04788296555	100	1	950	902.5	0	0	0	0	0	0	0	28.5	85.5	475	0	;
	124	949.652261708	-8.38200375932	475	-475	1.04788296555	100	1	950	902.5	0	0	0	0	0	0	0	28.5	85.5	475	0	;
	124	999.648490205	-9.0450470504	500	-500	1.04788296555	100	1	1000	950	0	0	0	0	0	0	0	30	90	500	0	;
	124	999.648490205	-9.0450470504	500	-500	1.04788296555	100	1	1000	950	0	0	0	0	0	0	0	30	90	500	0	;
	124	999.648490205	-9.0450470504	500	-500	1.04788296555	100	1	1000	950	0	0	0	0	0	0	0	30	90	500	0	;
	124	999.648490205	-9.0450470504	500	-500	1.04788296555	100	1	1000	950	0	0	0	0	0	0	0	30	90	500	0	;
	128	0	0	57.623	-57.623	1.03526956787	100	0	115.246	59.92792	0	0	0	0	0	0	0	19.20766667	57.623	57.623	0	;
	134	0	0	262.75	-262.75	1.02897754538	100	0	525.5	273.26	0	0	0	0	0	0	0	87.58333333	262.75	262.75	0	;
	134	0	0	432.1	-432.1	1.02897754538	100	0	864.2	449.384	0	0	0	0	0	0	0	144.0333333	432.1	432.1	0	;
	134	0	0	247.3	-247.3	1.02897754538	100	0	494.6	257.192	0	0	0	0	0	0	0	82.43333333	247.3	247.3	0	;
	134	0	0	247.3	-247.3	1.02897754538	100	0	494.6	257.192	0	0	0	0	0	0	0	82.43333333	247.3	247.3	0	;
	137	339.552898674	1.79781493221	170	-170	1.02606989245	100	1	340	136	0	0	0	0	0	0	0	37.4	112.2	170	0	;
	137	328.169830703	2.30538569445	164.3	-164.3	1.02606989245	100	1	328.6	131.44	0	0	0	0	0	0	0	36.146	108.438	164.3	0	;
	156	0	0	185.35	-185.35	0.993036749268	100	0	370.7	192.764	0	0	0	0	0	0	0	61.78333333	185.35	185.35	0	;
	160	0	0	0	0	1.00448152314	100	0	0	0	0	0	0	0	0	0	0	0	0	0	0	;
	166	699.6864928	18.6767748736	350	-350	0.996345140178	100	1	700	665	0	0	0	0	0	0	0	21	63	350	0	;
	166	699.6864928	18.6767748736	350	-350	0.996345140178	100	1	700	665	0	0	0	0	0	0	0	21	63	350	0	;
	166	699.6864928	18.6767748736	350	-350	0.996345140178	100	1	700	665	0	0	0	0	0	0	0	21	63	350	0	;
	166	999.657379752	18.1681908168	500	-500	0.996345140178	100	1	1000	950	0	0	0	0	0	0	0	30	90	500	0	;
	166	999.657379752	18.1681908168	500	-500	0.996345140178	100	1	1000	950	0	0	0	0	0	0	0	30	90	500	0	;
	167	0	0	150	-150	0.995466788184	100	0	300	156	0	0	0	0	0	0	0	50	150	150	0	;
	167	0	0	225	-225	0.995466788184	100	0	450	234	0	0	0	0	0	0	0	75	225	225	0	;
	167	0	0	225	-225	0.995466788184	100	0	450	234	0	0	0	0	0	0	0	75	225	225	0	;
	167	0	0	435.95	-435.95	0.995466788184	100	0	871.9	453.388	0	0	0	0	0	0	0	145.3166667	435.95	435.95	0	;
	167	0	0	221.4	-221.4	0.995466788184	100	0	442.8	230.256	0	0	0	0	0	0	0	73.8	221.4	221.4	0	;
	172	0	0	22.918	-22.918	0.99194373145	100	0	45.836	23.83472	0	0	0	0	0	0	0	7.639333333	22.918	22.918	0	;
	175	649.688954726	8.42643971486	325	-325	1.00059288354	100	1	650	617.5	0	0	0	0	0	0	0	19.5	58.5	325	0	;
	175	949.656908775	7.23019853879	475	-475	1.00059288354	100	1	950	902.5	0	0	0	0	0	0	0	28.5	85.5	475	0	;
	175	949.656908775	7.23019853879	475	-475	1.00059288354	100	1	950	902.5	0	0	0	0	0	0	0	28.5	85.5	475	0	;
	175	999.652717262	7.09140973189	500	-500	1.00059288354	100	1	1000	950	0	0	0	0	0	0	0	30	90	500	0	;
	175	999.652717262	7.09140973189	500	-500	1.00059288354	100	1	1000	950	0	0	0	0	0	0	0	30	90	500	0	;
	175	1399.62591305	6.36493332286	700	-700	1.00059288354	100	1	1400	1330	0	0	0	0	0	0	0	42	126	700	0	;
	175	1399.62591305	6.36493332286	700	-700	1.00059288354	100	1	1400	1330	0	0	0	0	0	0	0	42	126	700	0	;
	180	0	0	13.15	-13.15	1.00379038307	100	0	26.3	13.676	0	0	0	0	0	0	0	4.383333333	13.15	13.15	0	;
	186	0	0	225	-225	0.995881988323	100	0	450	234	0	0	0	0	0	0	0	75	225	225	0	;
	186	449.576955153	7.5081048786	225	-225	0.995881988323	100	1	450	234	0	0	0	0	0	0	0	75	225	225	0	;
	186	449.576955153	7.5081048786	225	-225	0.995881988323	100	1	450	234	0	0	0	0	0	0	0	75	225	225	0	;
	186	442.775629806	7.5081048786	225	-225	0.995881988323	100	1	450	234	0	0	0	0	0	0	0	75	225	225	0	;
	190	0	0	0	0	1	100	0	0	0	0	0	0	0	0	0	0	0	0	0	0	;
	190	0	0	0	0	1	100	0	0	0	0	0	0	0	0	0	0	0	0	0	0	;
	190	0	0	0	0	1	100	0	0	0	0	0	0	0	0	0	0	0	0	0	0	;
	190	0	0	0	0	1	100	0	0	0	0	0	0	0	0	0	0	0	0	0	0	;
	190	987.574187376	-61.5790920566	520	-520	1	100	1	1040	416	0	0	0	0	0	0	0	114.4	343.2	520	0	;
	190	987.574187376	-61.5790920566	520	-520	1	100	1	1040	416	0	0	0	0	0	0	0	114.4	343.2	520	0	;
	193	0	0	0	0	1.02586904085	100	0	0	0	0	0	0	0	0	0	0	0	0	0	0	;
	193	0	0	0	0	1.02586904085	100	0	0	0	0	0	0	0	0	0	0	0	0	0	0	;
	193	0	0	0	0	1.02586904085	100	0	0	0	0	0	0	0	0	0	0	0	0	0	0	;
	193	0	0	0	0	1.02586904085	100	0	0	0	0	0	0	0	0	0	0	0	0	0	0	;
	193	0	0	0	0	1.02586904085	100	0	0	0	0	0	0	0	0	0	0	0	0	0	0	;
	193	0	0	0	0	1.02586904085	100	0	0	0	0	0	0	0	0	0	0	0	0	0	0	;
	193	499.547800742	-8.35393051112	250	-250	1.02586904085	100	1	500	200	0	0	0	0	0	0	0	55	165	250	0	;
	193	499.547800742	-8.35393051112	250	-250	1.02586904085	100	1	500	200	0	0	0	0	0	0	0	55	165	250	0	;
	71	1039.34196003	21.7062761452	520	-520	1.03688720073	100	1	1040	416	0	0	0	0	0	0	0	114.4	343.2	520	0	;
	60	0	0	247.5	-247.5	1.04352886036	100	0	495	257.4	0	0	0	0	0	0	0	82.5	247.5	247.5	0	;
	42	1024.88651579	29.60911523	512.7	-512.7	1.03006250581	100	1	1025.4	533.208	0	0	0	0	0	0	0	170.9	512.7	512.7	0	;
	11	0	0	0	0	1.03838673631	100	0	0	0	0	0	0	0	0	0	0	0	0	0	0	;
	172	118.629140851	3.17733113127	59.486	-59.486	0.99194373145	100	1	118.972	61.86544	0	0	0	0	0	0	0	19.8286666667	59.486	59.486	0	;
	82	1331.59986964	44.7520382691	700	-700	1.03050730508	100	1	1400	1330	0	0	0	0	0	0	0	42	126	700	0	;
	75	447.968494071	45.1303014625	525	-525	1.03633860863	100	1	1050	420	0	0	0	0	0	0	0	115.5	346.5	525	0	;
	64	0	0	298.5855	-298.5855	1.03675228062	100	0	597.171	310.52892	0	0	0	0	0	0	0	99.5285	298.5855	298.5855	0	;
	160	0	0	135	-135	1.00448152314	100	0	270	140.4	0	0	0	0	0	0	0	45	135	135	0	;
	192	1011.95300725	-36.8469162351	506	-506	1.00327915601	100	1	1012	526.24	0	0	0	0	0	0	0	168.666666667	506	506	0	;
	167	1006.36363272	15.7150179476	552.3	-552.3	0.995466788184	100	1	1104.6	574.392	0	0	0	0	0	0	0	184.1	552.3	552.3	0	;
	75	0	0	525	-525	1.03633860863	100	0	1050	546	0	0	0	0	0	0	0	175	525	525	0	;
	62	0	0	135	-135	1.03929715865	100	0	270	140.4	0	0	0	0	0	0	0	45	135	135	0	;
	52	560.451483983	32.9991705339	280.5	-280.5	1.03113098051	100	1	561	291.72	0	0	0	0	0	0	0	93.5	280.5	280.5	0	;
	11	0	0	247.73	-247.73	1.03838673631	100	0	495.46	257.6392	0	0	0	0	0	0	0	82.5766666667	247.73	247.73	0	;
	24	0	0	142.5	-142.5	1.0401793775	100	0	285	148.2	0	0	0	0	0	0	0	47.5	142.5	142.5	0	;
	26	0	0	249	-249	1.04007107515	100	0	498	258.96	0	0	0	0	0	0	0	83	249	249	0	;
...
];

% branch data
%	fbus	tbus	r	x	b	rateA	rateB	rateC	ratio	angle	status	angmin	angmax	Pf	Qf	Pt	Qt
mpc.branch = [
	1	2	0.001953667	0.017794207	0.057753945	904	904	904	0	0	1	-30	30	181.007465693	-38.8465115322	-180.385866257	38.3095287832	;
	1	3	0.002346024	0.021367842	0.069352749	904	904	904	0	0	1	-30	30	144.99324996	-32.7293770913	-144.513818187	29.6530979917	;
	1	66	0.002789894	0.025410654	0.082474341	904	904	904	0	0	1	-30	30	-397.777553452	64.3982053018	402.026833694	-34.5079037287	;
	2	3	0.000230027	0.002463512	0.207508013	2172	2172	2172	0	0	1	-30	30	-49.9407084813	-3.84771295628	49.9461518518	-18.4331543404	;
	2	4	0.001097043	0.009991982	0.032430577	904	904	904	0	0	1	-30	30	82.6850882455	-28.1721175486	-82.6083063371	25.3742123862	;
	2	6	0.004587512	0.041783555	0.135615211	904	904	904	0	0	1	-30	30	60.8899216418	-14.9648527286	-60.7294355927	1.81637449042	;
	3	4	0.000157872	0.001690763	0.142417379	2172	2172	2172	0	0	1	-30	30	564.84836929	-166.127543656	-564.343633001	156.176064625	;
	3	7	0.001539844	0.014025061	0.04552058	904	904	904	0	0	1	-30	30	109.115389912	-42.7984167485	-108.921791422	39.6428526282	;
	3	28	0.000668777	0.007162388	0.603306441	2172	2172	2172	0	0	1	-30	30	-977.272460402	157.918389613	983.431102324	-156.621378761	;
	4	7	0.001330617	0.012119404	0.039335464	904	904	904	0	0	1	-30	30	47.8375332026	-25.9466869809	-47.8023514174	22.0093880515	;
	4	8	0.000413018	0.004423289	0.372585094	2172	2172	2172	0	0	1	-30	30	260.785532113	-36.4326041645	-260.524467158	-1.00521545588	;
	5	16	0.00309813	0.028218105	0.091586372	904	904	904	0	0	1	-30	30	632.553325115	-21.766590187	-621.121027638	115.95513434	;
	5	20	0.003233724	0.029453105	0.095594761	904	904	904	0	0	1	-30	30	568.492135831	-16.3013043392	-558.857145147	93.7043324821	;
	5	66	0.002753227	0.025076687	0.081390398	904	904	904	0	0	1	-30	30	117.5731521	20.2067146574	-117.20702388	-25.6304293801	;
	5	70	0.001710666	0.015580931	0.050570403	904	904	904	0	0	1	-30	30	176.337845469	42.0852112452	-175.815944785	-42.7703555243	;
	6	8	0.001796592	0.016363559	0.053110546	904	904	904	0	0	1	-30	30	-34.8169599231	-3.57460111055	34.837170344	-1.97090301548	;
	6	11	0.001545809	0.014079394	0.045696926	904	904	904	0	0	1	-30	30	3.44157622838	-3.55404851107	-3.44138932734	-1.37104727471	;
	7	9	0.000740338	0.006743076	0.021885732	904	904	904	0	0	1	-30	30	9.60994858795	10.6906937406	-9.60835534644	-13.0481927804	;
	7	14	0.000255269	0.002733843	0.230278712	2172	2172	2172	0	0	1	-30	30	50.3490292903	7.23778555309	-50.3421475811	-32.1267731635	;
	7	28	0.000583767	0.00625196	0.526618746	2172	2172	2172	0	0	1	-30	30	-1366.7509197	297.559429036	1377.37672391	-240.417522765	;
	8	10	0.000160584	0.000184873	0.901984702	1416	1416	1416	0	0	1	-30	30	-1255.85506485	-5.35037100708	1258.20389271	-89.4953068717	;
	8	11	0.000158062	0.001692798	0.142588761	2172	2172	2172	0	0	1	-30	30	366.00784579	-2.01675044692	-365.81166076	-11.26611982	;
	8	14	0.000269282	0.002883925	0.242920462	2172	2172	2172	0	0	1	-30	30	-150.016545727	-64.5337165921	150.079276859	38.9347397038	;
	9	12	0.000119405	0.000137466	0.167672111	708	708	708	0	0	1	-30	30	144.339136923	-82.5909764132	-144.310207232	64.467520367	;
	9	13	0.000176983	0.000203752	0.248523638	708	708	708	0	0	1	-30	30	-80.033846867	-33.3089650173	80.044959164	6.40350533795	;
	9	15	0.000297907	0.000342968	0.41832935	708	708	708	0	0	1	-30	30	-393.02860413	104.170938446	393.49778468	-148.964383228	;
	10	14	0.00105221	0.00958364	0.031105236	904	904	904	0	0	1	-30	30	-18.5054530665	0.824332956967	18.5088400199	-4.16341969854	;
	10	24	0.000243464	0.000280289	1.367512381	1416	1416	1416	0	0	1	-30	30	460.384741582	-211.355460261	-459.866106767	63.8909121026	;
	11	21	0.00015784	0.00169041	0.142387631	2172	2172	2172	0	0	1	-30	30	-174.008207579	-34.5678108459	174.053590092	19.6904952285	;
	11	25	0.00110679	0.010080759	0.032718716	904	904	904	0	0	1	-30	30	-48.2457825869	-8.11501286075	48.2700893498	4.80463678163	;
	12	14	0.000665432	0.00606083	0.019671394	904	904	904	0	0	1	-30	30	7.31553538318	-6.41994925353	-7.31503027259	4.29398475595	;
	12	18	0.000258897	0.000298056	0.363549377	708	708	708	0	0	1	-30	30	-208.216669262	-92.5687036878	208.333030609	53.3099637195	;
	13	16	0.000661549	0.006025463	0.019556605	904	904	904	0	0	1	-30	30	-41.1921821506	-11.4676303838	41.2032056167	9.447684159	;
	13	17	0.000189196	0.000217813	0.265674267	708	708	708	0	0	1	-30	30	-332.280749923	-22.7696666116	332.473700563	-5.80611707464	;
	13	22	0.000821755	0.00748463	0.024292563	904	904	904	0	0	1	-30	30	-40.1658284761	-5.2940744488	40.1781863378	2.77346146165	;
	14	18	9.94e-05	0.000114489	0.558582953	1416	1416	1416	0	0	1	-30	30	-661.508929086	124.680100796	661.932456462	-184.733429367	;
	14	19	2.7e-05	6.2e-05	1.344867636	1906	1906	1906	0	0	1	-30	30	-105.216630958	-124.328873057	105.220050534	-21.3681425146	;
	14	23	0.000322118	0.000370841	0.45232683	708	708	708	0	0	1	-30	30	256.769219216	-47.1922883699	-256.571654698	-1.54969327448	;
	15	16	0.000110729	0.000127478	0.155489196	708	708	708	0	0	1	-30	30	-499.150585859	152.973183543	499.431592478	-169.516621724	;
	16	17	1.61e-05	3.7e-05	7.216516162	5718	5718	5718	0	0	1	-30	30	4130.92456191	-1495.12195638	-4128.21196918	718.465881192	;
	16	20	0.000640865	0.005837068	0.018945138	904	904	904	0	0	1	-30	30	-182.671992455	54.996886576	182.887606586	-55.0849454505	;
	16	22	3.29e-05	7.57e-05	1.640782241	1906	1906	1906	0	0	1	-30	30	-493.098327528	483.027414773	493.271265187	-660.628675415	;
	16	28	0.000193401	0.002071259	0.697869898	4344	4344	4344	0	0	1	-30	30	-4032.21616089	940.599399415	4062.90069615	-687.074754233	;
	17	18	8.5e-06	1.95e-05	1.693948976	3812	3812	3812	0	0	1	-30	30	3247.39828486	-767.493829418	-3246.53605606	585.770028899	;
	18	19	3.3e-05	3.8e-05	0.742	2832	2832	2832	0	0	1	-30	30	1838.39111503	-529.523186067	-1837.28968227	450.366505995	;
	18	30	0.000754369	0.006870878	0.022300533	904	904	904	0	0	1	-30	30	-34.6102541355	17.927630472	34.6211356109	-20.2442590616	;
	19	23	4.24e-05	4.88e-05	0.952412124	2832	2832	2832	0	0	1	-30	30	2072.25745983	-205.820894562	-2070.56766704	104.650758797	;
	20	22	0.000644357	0.005868869	0.019048354	904	904	904	0	0	1	-30	30	172.90453304	-49.3020672675	-172.71244619	48.9890544921	;
	21	25	0.000588113	0.0053566	0.017385701	904	904	904	0	0	1	-30	30	-35.8552515054	-5.40990870755	35.8623629786	3.59673668349	;
	21	34	9.49e-05	0.001016882	0.085654572	2172	2172	2172	0	0	1	-30	30	-380.381399949	-96.2262505669	380.515948416	88.4086018906	;
	22	29	0.000157753	0.000181614	0.886083495	1416	1416	1416	0	0	1	-30	30	424.678749426	203.059410186	-424.32470747	-298.654303306	;
	22	36	0.000114952	0.001231098	0.103698609	2172	2172	2172	0	0	1	-30	30	-25.4456633111	84.3682674791	25.4549330335	-95.5046814065	;
	22	38	0.000222736	0.002385427	0.200930653	2172	2172	2172	0	0	1	-30	30	-665.177234587	214.706762759	666.190430475	-225.572429603	;
	22	46	0.000425686	0.004558955	0.384012537	2172	2172	2172	0	0	1	-30	30	-383.184681223	98.5581771888	383.816917817	-133.295702113	;
	23	24	5.52e-05	0.000503	0.0147	2712	2712	2712	0	0	1	-30	30	469.660943265	-62.1172351051	-469.546477814	61.5698564948	;
	23	32	2.02e-05	4.64e-05	1.00675716	1906	1906	1906	0	0	1	-30	30	1105.09558724	-9.84469471987	-1104.86719388	-98.5241154969	;
	23	33	0.000169968	0.000195677	0.238673524	708	708	708	0	0	1	-30	30	365.480959634	-62.4291857942	-365.267251059	36.8663641351	;
	24	26	0.000118	0.000136	0.664	1416	1416	1416	0	0	1	-30	30	293.290396218	-207.437481786	-293.164500631	135.74704529	;
	25	26	0.00041452	0.003775492	0.012253963	904	904	904	0	0	1	-30	30	-42.6105552901	-10.9122369788	42.6179231005	9.65446620498	;
	25	34	0.000619848	0.00564564	0.018323828	904	904	904	0	0	1	-30	30	-34.6350320618	-12.1679507498	34.6426296381	10.255491012	;
	26	32	0.000607908	0.005536893	0.01797087	904	904	904	0	0	1	-30	30	-44.1217441357	7.22930640784	44.1330621194	-9.06988710084	;
	26	34	4.5e-05	0.000103577	2.245327702	1906	1906	1906	0	0	1	-30	30	-359.309512687	-238.310776762	359.368900404	-4.50387184865	;
	27	34	9.33e-05	0.000999417	0.336734	4344	4344	4344	0	0	1	-30	30	449.944525942	52.1872960091	-449.766094624	-86.7586584664	;
	28	38	0.001685665	0.015353221	0.049831335	904	904	904	0	0	1	-30	30	437.850166228	-68.9867648572	-434.752078711	91.8623723201	;
	28	41	0.002015591	0.018358223	0.059584548	904	904	904	0	0	1	-30	30	-135.074837765	37.8902950359	135.451341111	-40.7921888476	;
	28	50	9.99e-05	0.00321	1.63	7290	7290	7290	0	0	1	-30	30	1453.95685913	-269.649715712	-1451.94642848	159.432751703	;
	28	80	0.000122152	0.003924627	7.991861101	14580	14580	14580	0	0	1	-30	30	-8568.9084959	1548.49797033	8657.42941266	451.759361518	;
	29	30	8.04e-06	9.26e-06	0.04515506	1416	1416	1416	0	0	1	-30	30	636.401740128	25.7628910011	-636.371595177	-30.615160719	;
	29	36	3.7e-05	8.52e-05	1.846241882	1906	1906	1906	0	0	1	-30	30	-801.309744908	192.868041376	801.558554707	-392.126674547	;
	30	31	0.00033011	0.003006676	0.009758648	904	904	904	0	0	1	-30	30	190.576234444	13.6964127699	-190.464831784	-13.7368246456	;
	31	33	0.000235829	0.000271499	0.331156608	708	708	708	0	0	1	-30	30	-153.779311495	-11.30726622	153.831037634	-24.4138847278	;
	31	36	0.00107165	0.0097607	0.031679912	904	904	904	0	0	1	-30	30	-67.3555926363	-5.81225780499	67.4007710309	2.79828003456	;
	32	33	6.05e-05	6.97e-05	0.1912274	1062	1062	1062	0	0	1	-30	30	440.890419204	8.93519836518	-440.781459263	-29.4832972901	;
	32	37	0.000239942	0.002569698	0.216452349	2172	2172	2172	0	0	1	-30	30	28.2589838608	0.326589586405	-28.2568908446	-23.7027858656	;
	32	44	0.000338016	0.003620039	0.304925228	2172	2172	2172	0	0	1	-30	30	-205.292418773	42.3858660285	205.434988634	-73.7900744446	;
	34	37	6.47e-05	0.000692975	0.058371101	2172	2172	2172	0	0	1	-30	30	-199.826849367	137.262082799	199.862507029	-143.192833734	;
	35	37	0.000950447	0.008656772	0.028096937	904	904	904	0	0	1	-30	30	-28.7834802333	-14.1875375218	28.7922018687	11.2346007665	;
	35	40	0.001104834	0.01006295	0.032660912	904	904	904	0	0	1	-30	30	-178.285052437	4.37231224495	178.611241894	-4.92670988449	;
	36	38	0.000952048	0.00867136	0.028144286	904	904	904	0	0	1	-30	30	-178.096436813	50.4640069837	178.39918947	-50.7453114961	;
	36	43	0.001604892	0.014617531	0.047443535	904	904	904	0	0	1	-30	30	53.003004327	19.3174931141	-52.9542492281	-23.9897364247	;
	36	44	0.000327256	0.003504805	0.295218756	2172	2172	2172	0	0	1	-30	30	-46.8673830439	43.4695151018	46.8847085311	-75.1820520694	;
	36	46	0.000315296	0.00337672	0.284429868	2172	2172	2172	0	0	1	-30	30	-507.609763534	112.654066081	508.408081244	-134.818182818	;
	37	40	0.000119	0.00127	0.429	4344	4344	4344	0	0	1	-30	30	-1222.23581792	90.0576793643	1223.89499378	-118.715041271	;
	38	42	0.001675214	0.015258027	0.049522368	904	904	904	0	0	1	-30	30	-155.082015072	68.8992546803	155.535757348	-70.0606179917	;
	38	45	0.001624604	0.014797065	0.048026242	904	904	904	0	0	1	-30	30	17.5673354723	-3.01040289235	-17.562677649	-2.11870790216	;
	38	46	0.001525585	0.013895192	0.045099066	904	904	904	0	0	1	-30	30	-11.4688698006	-1.97918855057	11.4707358143	-2.86165040726	;
	38	84	0.000977268	0.010466224	0.881597169	2172	2172	2172	0	0	1	-30	30	-783.864284661	143.349503859	789.769968283	-174.261482339	;
	39	44	0.000549539	0.00500526	0.064981493	1808	1808	1808	0	0	1	-30	30	-369.944688697	-23.9562322781	370.648336816	23.3773953714	;
	40	44	0.000186834	0.002000932	0.16854368	2172	2172	2172	0	0	1	-30	30	368.024634108	15.8982895095	-367.789438322	-31.577510397	;
	40	47	0.000177428	0.001900194	0.160058219	2172	2172	2172	0	0	1	-30	30	1002.8247038	160.469113668	-1001.12696601	-159.510291394	;
	41	42	0.001299581	0.011836722	0.038417974	904	904	904	0	0	1	-30	30	572.109529145	-58.7309507909	-568.04975792	91.637249661	;
	41	52	0.003101751	0.028251087	0.091693421	904	904	904	0	0	1	-30	30	69.4502827563	-20.9646571499	-69.3012704792	12.5965162657	;
	41	77	0.002217352	0.020195883	0.065548969	904	904	904	0	0	1	-30	30	-161.741386486	18.4683810973	162.299712601	-20.3163488054	;
	42	46	0.00172419	0.015704108	0.050970195	904	904	904	0	0	1	-30	30	141.03913398	-68.0615718648	-140.646470607	66.1885391491	;
	42	84	0.004178797	0.038060939	0.123532864	904	904	904	0	0	1	-30	30	-151.598551728	16.912267459	152.525375411	-21.5658597326	;
	43	44	0.000449352	0.004092749	0.013283673	904	904	904	0	0	1	-30	30	-227.868486337	-25.7488422255	228.088275859	26.3207586043	;
	44	48	0.001280818	0.011665829	0.037863315	904	904	904	0	0	1	-30	30	-145.863965729	16.8200088585	146.120851434	-18.5633285229	;
	44	57	0.000681396	0.007297531	0.614689901	2172	2172	2172	0	0	1	-30	30	-819.919484568	65.2715960552	824.227820052	-85.4352177202	;
	45	46	0.000111099	0.001189836	0.100222927	2172	2172	2172	0	0	1	-30	30	-353.029791935	0.261747318234	353.158436675	-9.67729023899	;
	45	50	0.00040114	0.004296079	0.361869864	2172	2172	2172	0	0	1	-30	30	-560.443159241	23.5235061673	561.620375395	-49.8990153364	;
	46	48	0.001260894	0.011484355	0.037274311	904	904	904	0	0	1	-30	30	-13.9378193162	-4.44473058173	13.9401626044	0.448953505359	;
	46	50	0.000334595	0.003583402	0.301839233	2172	2172	2172	0	0	1	-30	30	-555.046841392	31.2667350838	556.010736998	-53.4699867516	;
	47	49	0.001906713	0.017366547	0.056365905	904	904	904	0	0	1	-30	30	-184.108184223	14.5318590156	184.716976682	-15.0304673275	;
	47	60	0.000752607	0.008060181	0.67892992	2172	2172	2172	0	0	1	-30	30	-1265.7606516	32.995723439	1277.05035158	14.5820298199	;
	48	49	0.001480551	0.013485018	0.043767781	904	904	904	0	0	1	-30	30	-25.3899323865	19.1288602025	25.4051254396	-23.698416811	;
	48	51	0.001270961	0.011576049	0.037571917	904	904	904	0	0	1	-30	30	-83.8429301195	25.3910925274	83.9346567339	-28.5988099044	;
	49	51	0.000899122	0.008189302	0.0598043	1356	1356	1356	0	0	1	-30	30	-76.5404292597	-0.11222495084	76.5895935973	-5.86059090831	;
	49	53	0.002230934	0.020319589	0.065950477	904	904	904	0	0	1	-30	30	-490.496239621	15.1966257922	495.505005367	23.2682826851	;
	50	51	0.000183433	0.001964511	0.165475847	2172	2172	2172	0	0	1	-30	30	433.167092175	51.3017693535	-432.841625544	-65.6213169042	;
	50	54	0.000298513	0.003196975	0.269289514	2172	2172	2172	0	0	1	-30	30	-553.822706012	76.9122801907	554.695247575	-96.5653842251	;
	50	62	4.12e-05	0.001322961	2.693994224	14580	14580	14580	0	0	1	-30	30	-1678.57182835	-158.607027676	1679.648812	-97.5031955636	;
	51	55	0.001436718	0.01308578	0.042471992	904	904	904	0	0	1	-30	30	-298.964664324	12.4241102461	300.163151854	-6.08303098255	;
	51	57	0.00189377	0.017248658	0.055983277	904	904	904	0	0	1	-30	30	-190.888600014	7.26176813214	191.532939735	-7.41916441861	;
	52	54	0.001933006	0.017606027	0.057143176	904	904	904	0	0	1	-30	30	189.460244979	-56.0205534433	-188.756617297	56.3179907646	;
	52	56	0.001462649	0.013321963	0.04323856	904	904	904	0	0	1	-30	30	198.287176208	-29.9417326415	-197.735783218	30.361773919	;
	52	84	0.001585688	0.014442614	0.046875812	904	904	904	0	0	1	-30	30	-68.8323804478	19.7690565044	68.9104314021	-24.0324312156	;
	53	55	0.000288514	0.003089893	1.041078801	4344	4344	4344	0	0	1	-30	30	1774.19758221	90.2330045176	-1765.86026277	-114.266871719	;
	53	58	0.000270064	0.002892303	0.243626177	2172	2172	2172	0	0	1	-30	30	-180.784607161	-20.3648433661	180.865202939	-5.51013633436	;
	53	63	2.79e-05	0.000896312	1.825192122	14580	14580	14580	0	0	1	-30	30	1761.49485158	-12.2026630283	-1760.70359362	-162.352477764	;
	54	55	0.002132132	0.019419691	0.063029714	904	904	904	0	0	1	-30	30	-67.1573674942	-7.29113119944	67.2470631225	1.31364624708	;
	54	61	0.001817125	0.016550571	0.053717525	904	904	904	0	0	1	-30	30	-20.5417467852	-2.6333183151	20.5488758709	-3.08197582685	;
	54	62	0.000345552	0.003700749	0.311723639	2172	2172	2172	0	0	1	-30	30	-117.551678945	-65.4133148374	117.603670351	32.3687589843	;
	55	57	0.000154208	0.001651521	0.139111914	2172	2172	2172	0	0	1	-30	30	376.844949567	3.06574849706	-376.642063376	-15.9101203988	;
	55	64	0.003142511	0.028622331	0.092898352	904	904	904	0	0	1	-30	30	-30.9634431385	7.94689283049	30.9962229991	-17.6585901073	;
	56	61	0.001408725	0.01283082	0.041644479	904	904	904	0	0	1	-30	30	26.651416859	-47.470209412	-26.6149515664	43.3425270185	;
	57	60	0.001430752	0.01303144	0.042295623	904	904	904	0	0	1	-30	30	-236.499180676	-11.9645326335	237.24223869	14.1481273198	;
	57	97	0.000552148	0.005913329	0.498094995	2172	2172	2172	0	0	1	-30	30	-1081.94415861	-17.716478851	1087.9361047	27.7894407431	;
	58	59	6.17e-05	0.00066	0.501	6516	6516	6516	0	0	1	-30	30	-2780.17882423	-65.7777789162	2784.52220061	57.1118630277	;
	58	63	0.00017	0.00182	0.613	4344	4344	4344	0	0	1	-30	30	1153.19036198	-27.5885779321	-1151.13173559	-17.5777431437	;
	60	63	0.000254942	0.002730347	0.229984176	2172	2172	2172	0	0	1	-30	30	-526.107441158	-60.9607727418	526.760943716	42.8519114225	;
	60	100	0.000568608	0.006089613	0.512943851	2172	2172	2172	0	0	1	-30	30	-1180.1149301	13.0377018655	1187.39567268	8.74053836388	;
	61	62	0.000190755	0.001737417	0.022556263	1808	1808	1808	0	0	1	-30	30	-55.6386367631	-103.233195993	55.662567737	101.019014689	;
	62	63	6.31e-05	0.00202596	4.125535352	14580	14580	14580	0	0	1	-30	30	-2354.17078383	-450.736860562	2357.43875277	107.090148805	;
	62	64	0.00024797	0.002655684	0.223695124	2172	2172	2172	0	0	1	-30	30	-663.728563766	155.174583056	664.804133536	-167.75863593	;
	63	97	0.001705746	0.015536123	0.050424972	904	904	904	0	0	1	-30	30	-122.19910378	15.004808454	122.43674821	-18.3566450991	;
	64	96	0.001229987	0.011202852	0.036360649	904	904	904	0	0	1	-30	30	-398.769502054	-11.9806908185	400.590329843	24.6314028303	;
	64	98	0.00145865	0.013285543	0.043120356	904	904	904	0	0	1	-30	30	20.629081615	16.1757630294	-20.6186653657	-20.7038406443	;
	64	99	0.00122871	0.011191219	0.036322892	904	904	904	0	0	1	-30	30	64.6233440177	5.19995431241	-64.5750197393	-8.65829609282	;
	64	102	0.00020466	0.002191839	0.73849704	4344	4344	4344	0	0	1	-30	30	-1297.22410179	154.578714204	1300.50011231	-198.781752778	;
	65	68	0.001222283	0.011132689	0.036132921	904	904	904	0	0	1	-30	30	-293.265292688	4.38966795104	294.253843063	0.757778825731	;
	65	69	0.003164497	0.028822584	0.093548306	904	904	904	0	0	1	-30	30	214.951586841	-17.3732938161	-213.572686902	19.9930548833	;
	66	67	0.001903714	0.01733923	0.056277244	904	904	904	0	0	1	-30	30	-304.539992987	54.787744951	306.25412017	-45.1646660903	;
	66	70	0.001986687	0.018094956	0.058730073	904	904	904	0	0	1	-30	30	-10.8839407604	1.59996326356	10.8865633262	-7.83950417018	;
	67	69	0.001285688	0.011710181	0.038007266	904	904	904	0	0	1	-30	30	-332.976989224	42.1930542167	334.343680583	-33.7786101567	;
	68	69	0.00309092	0.02815243	0.091373212	904	904	904	0	0	1	-30	30	337.415636386	-9.78411952028	-334.128211222	29.9870637816	;
	68	71	0.000542799	0.0058132	0.489660838	2172	2172	2172	0	0	1	-30	30	-624.329105725	4.33464938805	626.309953389	-35.6561306679	;
	69	72	0.003845431	0.035024597	0.113677932	904	904	904	0	0	1	-30	30	205.509357797	-21.0834395156	-203.970570261	23.0382702784	;
	70	72	0.001924592	0.017529395	0.056894456	904	904	904	0	0	1	-30	30	-103.700652877	23.6836997643	103.907723229	-27.8473755682	;
	71	73	0.000429713	0.004602092	0.387646086	2172	2172	2172	0	0	1	-30	30	-918.732054483	147.436424551	922.218827607	-151.657802464	;
	71	78	0.005029715	0.045811184	0.148687523	904	904	904	0	0	1	-30	30	338.634554001	-20.792185835	-333.262221618	53.7354564422	;
	72	74	0.001850173	0.016851572	0.054694473	904	904	904	0	0	1	-30	30	-5.95622793108	-5.79280103044	5.95699254462	-0.00549007501789	;
	73	75	0.000154736	0.001657168	0.139587554	2172	2172	2172	0	0	1	-30	30	-2164.00240378	88.8132830328	2170.79249756	-31.0524899764	;
	73	76	0.003400257	0.030969904	0.100517777	904	904	904	0	0	1	-30	30	309.345552614	16.7291882399	-306.286962819	0.511303234489	;
	73	79	0.005323371	0.048485836	0.157368535	904	904	904	0	0	1	-30	30	312.821565631	13.5466679672	-307.925747796	14.4753759277	;
	73	80	0.003287737	0.029945065	0.097191498	904	904	904	0	0	1	-30	30	-49.9856195905	42.0093722508	50.1309600303	-50.9585844694	;
	73	81	0.001180594	0.012643784	1.065018618	2172	2172	2172	0	0	1	-30	30	1525.51920887	34.8552497103	-1499.73132268	128.723376414	;
	74	77	0.001050785	0.009570661	0.03106311	904	904	904	0	0	1	-30	30	270.388559635	-3.98736234152	-269.665123138	7.28475059724	;
	74	78	0.003080612	0.028058549	0.091068507	904	904	904	0	0	1	-30	30	-173.501556751	-5.79835691873	174.374798683	4.01908863878	;
	75	82	0.000690812	0.007398375	0.623184303	2172	2172	2172	0	0	1	-30	30	-805.356082517	146.851230618	809.737102791	-166.486216355	;
	76	79	0.00216439	0.019713499	0.063983315	904	904	904	0	0	1	-30	30	280.522779038	-9.55696937666	-278.889409746	17.7801318769	;
	77	81	0.002745828	0.0250093	0.081171682	904	904	904	0	0	1	-30	30	-299.300019303	64.1046002191	301.747703133	-50.3446743375	;
	78	81	0.002422622	0.022065501	0.071617111	904	904	904	0	0	1	-30	30	-7.06852899761	65.905982533	7.17926672631	-72.4914733985	;
	79	80	0.003522928	0.032087205	0.104144155	904	904	904	0	0	1	-30	30	-504.552425628	78.2953864591	513.442620851	-8.16003542652	;
	79	81	0.001905365	0.017354266	0.056326045	904	904	904	0	0	1	-30	30	228.74700252	-48.5197973821	-227.746954885	51.7652920012	;
	79	83	0.001772751	0.016146406	0.052405742	904	904	904	0	0	1	-30	30	240.552195772	18.5510477194	-239.554829611	-14.8626292247	;
	80	82	3.61e-05	0.00115912	2.360357594	14580	14580	14580	0	0	1	-30	30	-6814.36125958	-397.007827424	6830.43323109	664.435195698	;
	81	84	0.00122041	0.011115623	0.144310127	1808	1808	1808	0	0	1	-30	30	1060.73262876	-124.883018813	-1047.43504473	230.814831589	;
	81	86	0.000662535	0.007095536	0.59767536	2172	2172	2172	0	0	1	-30	30	-968.405171246	171.673111642	974.61037174	-167.35555529	;
	82	85	0.004627741	0.042149964	0.136804449	904	904	904	0	0	1	-30	30	465.539201508	28.6899926736	-456.038359365	43.5663697026	;
	82	86	0.000927929	0.009937818	0.837088105	2172	2172	2172	0	0	1	-30	30	2167.69591156	116.447676803	-2126.41062	237.977302963	;
	82	94	0.005001876	0.045557628	0.147864567	904	904	904	0	0	1	-30	30	147.418938123	25.4177126246	-146.343189058	-31.0223389074	;
	83	89	0.003668123	0.033409661	0.108436396	904	904	904	0	0	1	-30	30	-32.9897087265	-12.3925185867	33.0304277351	1.63559006321	;
	85	86	0.000987046	0.00899012	0.029178874	904	904	904	0	0	1	-30	30	199.34209653	-69.2359985255	-198.91544244	70.117281658	;
	86	87	0.000301405	0.003227955	0.271898989	2172	2172	2172	0	0	1	-30	30	-180.307441286	-6.4670035244	180.402370722	-20.6408946749	;
	86	89	0.003643968	0.033189659	0.107722346	904	904	904	0	0	1	-30	30	171.1011574	-13.1216055731	-170.067492507	11.4203266222	;
	86	90	0.002477336	0.022563841	0.073234554	904	904	904	0	0	1	-30	30	60.8081416763	-1.01889038588	-60.7193727175	-5.73055866919	;
	86	92	0.000752885	0.008063158	0.67918067	2172	2172	2172	0	0	1	-30	30	-184.140360087	2.80763714649	184.397708302	-70.1769978101	;
	87	90	0.002118269	0.019293421	0.062619884	904	904	904	0	0	1	-30	30	101.229198391	-1.18779055111	-101.019323409	-3.36512703361	;
	87	95	0.000515412	0.005519901	0.464955523	2172	2172	2172	0	0	1	-30	30	214.958290585	75.6193738966	-214.678630042	-120.429349153	;
	88	92	0.001978682	0.018022046	0.058493431	904	904	904	0	0	1	-30	30	903.631104738	-14.9552211106	-888.040498109	150.909524237	;
	88	94	0.002833759	0.025810183	0.083771075	904	904	904	0	0	1	-30	30	123.210024107	13.3382745877	-122.786444137	-18.0999136056	;
	89	93	0.001483845	0.013515018	0.043865152	904	904	904	0	0	1	-30	30	392.062503628	-53.3410324206	-389.809970204	69.3293423151	;
	90	92	0.002453205	0.022344057	0.072521209	904	904	904	0	0	1	-30	30	-127.094996742	9.86813949166	127.484137992	-13.7968375375	;
	91	147	0.00275034	0.025050396	0.081305066	904	904	904	0	0	1	-30	30	-57.939195313	8.18622583655	58.030154622	-15.9833344919	;
	92	95	0.000460572	0.004932573	0.415483409	2172	2172	2172	0	0	1	-30	30	422.657228019	37.8269612989	-421.843479616	-71.752618098	;
	93	102	0.004195747	0.038215319	0.124033929	904	904	904	0	0	1	-30	30	180.631130611	-68.7254953004	-179.150703234	69.1413632584	;
	93	149	0.002966654	0.027020609	0.087699707	904	904	904	0	0	1	-30	30	-74.7856877635	79.0594270811	75.1463991441	-84.6740069136	;
	94	150	0.00258422	0.023537359	0.076394262	904	904	904	0	0	1	-30	30	550.301067673	25.822756934	-542.616869375	36.4612407863	;
	95	146	0.001216475	0.011079788	0.035961223	904	904	904	0	0	1	-30	30	283.430388751	25.8851996355	-282.464706665	-20.7419234237	;
	95	150	0.000858914	0.009198692	0.774829649	2172	2172	2172	0	0	1	-30	30	-204.28272684	123.915881562	204.858304638	-195.903945603	;
	95	152	0.003724941	0.033927169	0.110116054	904	904	904	0	0	1	-30	30	197.23800673	12.2298541826	-195.807966914	-10.3317821451	;
	96	97	0.002346462	0.021371826	0.069365678	904	904	904	0	0	1	-30	30	-18.5443206958	-12.6250701121	18.5534194178	5.13926579188	;
...